1

   Abaqus 2024                                  Date 13-Apr-2026   Time 07:51:09
   For use by Supplied by Team-SolidSQUAD under license from Dassault Systemes or its subsidiary.



                         The Abaqus Software is a product of:

                           Dassault Systemes SIMULIA Corp.
                           1301 Atwood Avenue, Suite 101W
                              Johnston, RI 02919, USA
 


                   The Abaqus Software is available only under license
                   from Dassault Systemes or its subsidiary and may be
                   used or reproduced only in accordance with the terms
                   of such license.
 
                          On machine PRUTHVI 
                          you are authorized to run
                          Abaqus/Standard until 31-Dec-2055

                          Your site id is:  


 
                    For assistance or any other information you may
                    obtain contact information for your local office
                    from the world wide web at:

                      https://www.3ds.com/products-services/simulia/services-support/

 
                * * * * * * * * * * * * * * * * * * * * * * * * * * * * * * 
                *                                                         * 
                *                   *****************                     * 
                *                   *  N O T I C E  *                     * 
                *                   *****************                     * 
                *                                                         * 
                *                                                         * 
                *                       Abaqus 2024                       * 
                *                                                         * 
                *       BUILD ID: 2023_09_21-14.55.25 RELr426 190762      * 
                *                                                         * 
                *                                                         * 
                *  Please make sure you are using                         * 
                *  release Abaqus 2024 manuals                            * 
                *  plus the notes accompanying this release.              * 
                *                                                         * 
                *                                                         * 
                *                                                         * 
                *                                                         * 
                * * * * * * * * * * * * * * * * * * * * * * * * * * * * * * 


 



     PROCESSING PART, INSTANCE, AND ASSEMBLY INFORMATION
   *******************************************************


     END PROCESSING PART, INSTANCE, AND ASSEMBLY INFORMATION
   ***********************************************************




     OPTIONS BEING PROCESSED
   ***************************


  *Heading
  *Element, type=C3D8R
  *Elset, elset=ASSEMBLY_PART-1-1_SEC_EP
  *Elset, elset=ASSEMBLY_PART-1-1_SET-1
  *Elset, elset=ASSEMBLY_SET-1
  *Elset, elset=ASSEMBLY_SET-2
  *material, name=MATERIAL-1
  *elastic
  *material, name=STEEL_EP
  *elastic
  *plastic
  *solidsection, elset=ASSEMBLY_PART-1-1_SEC_EP, material=STEEL_EP
  *solidsection, elset=ASSEMBLY_PART-1-1_SEC_EP, material=STEEL_EP
  *boundary
  *boundary
  *boundary
  *boundary
  *output, field, variable=PRESELECT
  *output, history
  *output, history, variable=PRESELECT
  *output, field, variable=PRESELECT
  *output, history
  *output, history, variable=PRESELECT
  *output, field, variable=PRESELECT
  *output, history
  *output, history, variable=PRESELECT
  *Step, name=Step-1, nlgeom=NO
  *output, field, variable=PRESELECT
  *output, history
  *output, history, variable=PRESELECT
  *Step, name=Step-1, nlgeom=NO
  *Step, name=Step-1, nlgeom=NO
  Static, General                                                                 
  *static
  *boundary
  *boundary
  *output, field, variable=PRESELECT
  *output, history
  *nodeoutput, nset=ASSEMBLY_SET_LEFT_NODES
  *nodeoutput, nset=ASSEMBLY_SET_RIGHT_NODES
  *output, history, variable=PRESELECT
  *endstep

 ***WARNING: OUTPUT REQUEST VF1 IS NOT AVAILABLE FOR THIS TYPE OF ANALYSIS

 ***WARNING: OUTPUT REQUEST VF2 IS NOT AVAILABLE FOR THIS TYPE OF ANALYSIS

 ***WARNING: OUTPUT REQUEST VF3 IS NOT AVAILABLE FOR THIS TYPE OF ANALYSIS

 ***WARNING: OUTPUT REQUEST VM1 IS NOT AVAILABLE FOR THIS TYPE OF ANALYSIS

 ***WARNING: OUTPUT REQUEST VM2 IS NOT AVAILABLE FOR THIS TYPE OF ANALYSIS

 ***WARNING: OUTPUT REQUEST VM3 IS NOT AVAILABLE FOR THIS TYPE OF ANALYSIS

 ***WARNING: OUTPUT VARIABLE RM HAS NO COMPONENTS IN THIS ANALYSIS

 ***WARNING: OUTPUT REQUEST CM1 IS NOT VALID SINCE IT REQUESTS OUTPUT AT A DOF 
             THAT IS NOT ACTIVE

 ***WARNING: OUTPUT REQUEST CM2 IS NOT VALID SINCE IT REQUESTS OUTPUT AT A DOF 
             THAT IS NOT ACTIVE

 ***WARNING: OUTPUT REQUEST CM3 IS NOT VALID SINCE IT REQUESTS OUTPUT AT A DOF 
             THAT IS NOT ACTIVE

 ***WARNING: OUTPUT REQUEST CW IS NOT VALID SINCE IT REQUESTS OUTPUT AT A DOF 
             THAT IS NOT ACTIVE

 ***WARNING: OUTPUT REQUEST RM1 IS NOT VALID SINCE IT REQUESTS OUTPUT AT A DOF 
             THAT IS NOT ACTIVE

 ***WARNING: OUTPUT REQUEST RM2 IS NOT VALID SINCE IT REQUESTS OUTPUT AT A DOF 
             THAT IS NOT ACTIVE

 ***WARNING: OUTPUT REQUEST RM3 IS NOT VALID SINCE IT REQUESTS OUTPUT AT A DOF 
             THAT IS NOT ACTIVE

 ***WARNING: OUTPUT REQUEST RWM IS NOT VALID SINCE IT REQUESTS OUTPUT AT A DOF 
             THAT IS NOT ACTIVE

 ***WARNING: OUTPUT REQUEST TM1 IS NOT VALID SINCE IT REQUESTS OUTPUT AT A DOF 
             THAT IS NOT ACTIVE

 ***WARNING: OUTPUT REQUEST TM2 IS NOT VALID SINCE IT REQUESTS OUTPUT AT A DOF 
             THAT IS NOT ACTIVE

 ***WARNING: OUTPUT REQUEST TM3 IS NOT VALID SINCE IT REQUESTS OUTPUT AT A DOF 
             THAT IS NOT ACTIVE

 ***WARNING: OUTPUT REQUEST V1 IS NOT AVAILABLE FOR THIS TYPE OF ANALYSIS

 ***WARNING: OUTPUT REQUEST V2 IS NOT AVAILABLE FOR THIS TYPE OF ANALYSIS

 ***WARNING: OUTPUT REQUEST V3 IS NOT AVAILABLE FOR THIS TYPE OF ANALYSIS

 ***WARNING: OUTPUT REQUEST VR IS NOT AVAILABLE FOR THIS TYPE OF ANALYSIS

 ***WARNING: OUTPUT REQUEST VR1 IS NOT AVAILABLE FOR THIS TYPE OF ANALYSIS

 ***WARNING: OUTPUT REQUEST VR2 IS NOT AVAILABLE FOR THIS TYPE OF ANALYSIS

 ***WARNING: OUTPUT REQUEST VR3 IS NOT AVAILABLE FOR THIS TYPE OF ANALYSIS

 ***WARNING: OUTPUT REQUEST VT IS NOT AVAILABLE FOR THIS TYPE OF ANALYSIS

 ***WARNING: OUTPUT VARIABLE UR HAS NO COMPONENTS IN THIS ANALYSIS

 ***WARNING: OUTPUT REQUEST UR1 IS NOT VALID SINCE IT REQUESTS OUTPUT AT A DOF 
             THAT IS NOT ACTIVE

 ***WARNING: OUTPUT REQUEST UR2 IS NOT VALID SINCE IT REQUESTS OUTPUT AT A DOF 
             THAT IS NOT ACTIVE

 ***WARNING: OUTPUT REQUEST UR3 IS NOT VALID SINCE IT REQUESTS OUTPUT AT A DOF 
             THAT IS NOT ACTIVE

 ***WARNING: OUTPUT REQUEST WARP IS NOT VALID SINCE IT REQUESTS OUTPUT AT A DOF 
             THAT IS NOT ACTIVE
  *Step, name=Step-1, nlgeom=NO
  *static
  *boundary
  *boundary
  *endstep

 ***WARNING: OUTPUT REQUEST CF1 HAS BEEN REMOVED AS THERE ARE NO APPLICABLE 
             LOADS IN THIS STEP



                            P R O B L E M   S I Z E


          NUMBER OF ELEMENTS IS                                   320
          NUMBER OF NODES IS                                      525
          NUMBER OF NODES DEFINED BY THE USER                     525
          TOTAL NUMBER OF VARIABLES IN THE MODEL                 1575
          (DEGREES OF FREEDOM PLUS MAX NO. OF ANY LAGRANGE MULTIPLIER
           VARIABLES. INCLUDE *PRINT,SOLVE=YES TO GET THE ACTUAL NUMBER.)



                              END OF USER INPUT PROCESSING



     JOB TIME SUMMARY
       USER TIME (SEC)      =     0.20    
       SYSTEM TIME (SEC)    =     0.10    
       TOTAL CPU TIME (SEC) =     0.30    
       WALLCLOCK TIME (SEC) =            0
1

   Abaqus 2024                                  Date 13-Apr-2026   Time 07:51:15
   For use by Supplied by Team-SolidSQUAD under license from Dassault Systemes or its subsidiary.

                                                                                               STEP    1  INCREMENT    1
     Static, General                                                                      TIME COMPLETED IN THIS STEP   0.00    


                        S T E P       1     S T A T I C   A N A L Y S I S


          Static, General                                                                 

     AUTOMATIC TIME CONTROL WITH -
          A SUGGESTED INITIAL TIME INCREMENT OF                 1.00    
          AND A TOTAL TIME PERIOD OF                            1.00    
          THE MINIMUM TIME INCREMENT ALLOWED IS                1.000E-05
          THE MAXIMUM TIME INCREMENT ALLOWED IS                 1.00    

     LINEAR EQUATION SOLVER TYPE         DIRECT SPARSE
  
                   M E M O R Y   E S T I M A T E
  
 PROCESS      FLOATING PT       MINIMUM MEMORY        MEMORY TO
              OPERATIONS           REQUIRED          MINIMIZE I/O
             PER ITERATION           (MB)               (MB)
  
     1          2.82E+07               17                 26
  
 NOTE:
      (1) SINCE ABAQUS DOES NOT PRE-ALLOCATE MEMORY AND ONLY ALLOCATES MEMORY AS NEEDED DURING THE ANALYSIS,
          THE MEMORY REQUIREMENT PRINTED HERE CAN ONLY BE VIEWED AS A GENERAL GUIDELINE BASED ON THE BEST
          KNOWLEDGE AVAILABLE AT THE BEGINNING OF A STEP BEFORE THE SOLUTION PROCESS HAS BEGUN.
      (2) THE ESTIMATE IS NORMALLY UPDATED AT THE BEGINNING OF EVERY STEP. IT IS THE MAXIMUM VALUE OF THE
          ESTIMATE FROM THE CURRENT STEP TO THE LAST STEP OF THE ANALYSIS, WITH UNSYMMETRIC SOLUTION TAKEN
          INTO ACCOUNT IF APPLICABLE. 
      (3) SINCE THE ESTIMATE IS BASED ON THE ACTIVE DEGREES OF FREEDOM IN THE FIRST ITERATION OF THE 
          CURRENT STEP, THE MEMORY ESTIMATE MIGHT BE SIGNIFICANTLY DIFFERENT THAN ACTUAL USAGE FOR 
          PROBLEMS WITH SUBSTANTIAL CHANGES IN ACTIVE DEGREES OF FREEDOM BETWEEN STEPS (OR EVEN WITHIN
          THE SAME STEP). EXAMPLES ARE: PROBLEMS WITH SIGNIFICANT CONTACT CHANGES, PROBLEMS WITH MODEL
          CHANGE, PROBLEMS WITH BOTH STATIC STEP AND STEADY STATE DYNAMIC PROCEDURES WHERE ACOUSTIC 
          ELEMENTS WILL ONLY BE ACTIVATED IN THE STEADY STATE DYNAMIC STEPS.
      (4) FOR MULTI-PROCESS EXECUTION, THE ESTIMATED VALUE OF FLOATING POINT OPERATIONS FOR EACH PROCESS
          IS BASED ON AN INITIAL SCHEDULING OF OPERATIONS AND MIGHT NOT REFLECT THE ACTUAL FLOATING 
          POINT OPERATIONS COMPLETED ON EACH PROCESS. OPERATIONS ARE DYNAMICALLY BALANCED DURING EXECUTION, 
          SO THE ACTUAL BALANCE OF OPERATIONS BETWEEN PROCESSES IS EXPECTED TO BE BETTER THAN THE ESTIMATE
          PRINTED HERE.
      (5) THE UPPER LIMIT OF MEMORY THAT CAN BE ALLOCATED BY ABAQUS WILL IN GENERAL DEPEND ON THE VALUE OF
          THE "MEMORY" PARAMETER AND THE AMOUNT OF PHYSICAL MEMORY AVAILABLE ON THE MACHINE. PLEASE SEE
          THE "ABAQUS ANALYSIS USER'S MANUAL" FOR MORE DETAILS. THE ACTUAL USAGE OF MEMORY AND OF DISK
          SPACE FOR SCRATCH DATA WILL DEPEND ON THIS UPPER LIMIT AS WELL AS THE MEMORY REQUIRED TO MINIMIZE
          I/O. IF THE MEMORY UPPER LIMIT IS GREATER THAN THE MEMORY REQUIRED TO MINIMIZE I/O, THEN THE ACTUAL
          MEMORY USAGE WILL BE CLOSE TO THE ESTIMATED "MEMORY TO MINIMIZE I/O" VALUE, AND THE SCRATCH DISK
          USAGE WILL BE CLOSE-TO-ZERO; OTHERWISE, THE ACTUAL MEMORY USED WILL BE CLOSE TO THE PREVIOUSLY
          MENTIONED MEMORY LIMIT, AND THE SCRATCH DISK USAGE WILL BE ROUGHLY PROPORTIONAL TO THE DIFFERENCE
          BETWEEN THE ESTIMATED "MEMORY TO MINIMIZE I/O" AND THE MEMORY UPPER LIMIT. HOWEVER ACCURATE
          ESTIMATE OF THE SCRATCH DISK SPACE IS NOT POSSIBLE.
      (6) USING "*RESTART, WRITE" CAN GENERATE A LARGE AMOUNT OF DATA WRITTEN IN THE WORK DIRECTORY.


          THE ANALYSIS HAS BEEN COMPLETED



                              ANALYSIS COMPLETE
                              WITH     32 WARNING MESSAGES ON THE DAT FILE



     JOB TIME SUMMARY
       USER TIME (SEC)      =     0.10    
       SYSTEM TIME (SEC)    =      0.0    
       TOTAL CPU TIME (SEC) =     0.10    
       WALLCLOCK TIME (SEC) =            1
