*Heading
 lin_kin_2cycle
** Job name: lin_kin_2cycle Model name: phase2_lin_kin
** Generated by: Abaqus/CAE 2024
*Preprint, echo=NO, model=NO, history=NO, contact=NO
**
** PARTS
**
*Part, name=Bar
*Node
      1,          10.,           2.,           2.
      2,          10.,          1.5,           2.
      3,          10.,           1.,           2.
      4,          10.,          0.5,           2.
      5,          10.,           0.,           2.
      6,          10.,           2.,          1.5
      7,          10.,          1.5,          1.5
      8,          10.,           1.,          1.5
      9,          10.,          0.5,          1.5
     10,          10.,           0.,          1.5
     11,          10.,           2.,           1.
     12,          10.,          1.5,           1.
     13,          10.,           1.,           1.
     14,          10.,          0.5,           1.
     15,          10.,           0.,           1.
     16,          10.,           2.,          0.5
     17,          10.,          1.5,          0.5
     18,          10.,           1.,          0.5
     19,          10.,          0.5,          0.5
     20,          10.,           0.,          0.5
** ... 505 like lines cut
*Element, type=C3D8R
  1,  26,  27,  32,  31,   1,   2,   7,   6
  2,  27,  28,  33,  32,   2,   3,   8,   7
  3,  28,  29,  34,  33,   3,   4,   9,   8
  4,  29,  30,  35,  34,   4,   5,  10,   9
  5,  31,  32,  37,  36,   6,   7,  12,  11
  6,  32,  33,  38,  37,   7,   8,  13,  12
  7,  33,  34,  39,  38,   8,   9,  14,  13
  8,  34,  35,  40,  39,   9,  10,  15,  14
  9,  36,  37,  42,  41,  11,  12,  17,  16
 10,  37,  38,  43,  42,  12,  13,  18,  17
 11,  38,  39,  44,  43,  13,  14,  19,  18
 12,  39,  40,  45,  44,  14,  15,  20,  19
 13,  41,  42,  47,  46,  16,  17,  22,  21
 14,  42,  43,  48,  47,  17,  18,  23,  22
 15,  43,  44,  49,  48,  18,  19,  24,  23
 16,  44,  45,  50,  49,  19,  20,  25,  24
 17,  51,  52,  57,  56,  26,  27,  32,  31
 18,  52,  53,  58,  57,  27,  28,  33,  32
 19,  53,  54,  59,  58,  28,  29,  34,  33
 20,  54,  55,  60,  59,  29,  30,  35,  34
** ... 300 like lines cut
*Nset, nset=Sec_EP, generate
   1,  525,    1
*Elset, elset=Sec_EP, generate
   1,  320,    1
** Section: Sec_EP
*Solid Section, elset=Sec_EP, material=Steel_EP
,
*End Part
**  
**
** ASSEMBLY
**
*Assembly, name=Assembly
**  
*Instance, name=Bar-1, part=Bar
*End Instance
**  
*Nset, nset=Set-5, instance=Bar-1, generate
   1,  525,    1
*Elset, elset=Set-5, instance=Bar-1, generate
   1,  320,    1
*Nset, nset=Set_Left_Face, instance=Bar-1, generate
 501,  525,    1
*Elset, elset=Set_Left_Face, instance=Bar-1, generate
 305,  320,    1
*Nset, nset=Set_Left_Nodes, instance=Bar-1, generate
 501,  525,    1
*Nset, nset=Set_Right_Nodes, instance=Bar-1, generate
  1,  25,   1
*Nset, nset=Set_Right_face, instance=Bar-1, generate
  1,  25,   1
*Elset, elset=Set_Right_face, instance=Bar-1, generate
  1,  16,   1
*End Assembly
*Amplitude, name=Amp_1cycle
             0.,              0.,            0.25,              1.,             0.5,              0.,            0.75,             -1.
             1.,              0.,            1.25,              1.,             1.5,              0.,            1.75,             -1.
             2.,              0.
** 
** MATERIALS
** 
*Material, name=Steel_EP
*Elastic
210000., 0.3
*Plastic, hardening=KINEMATIC
250.,  0.
350., 0.1
** ----------------------------------------------------------------
** 
** STEP: Step-1
** 
*Step, name=Step-1, nlgeom=NO, inc=200
*Static
0.01, 2., 1e-05, 0.02
** 
** BOUNDARY CONDITIONS
** 
** Name: BC-Left Type: Displacement/Rotation
*Boundary
Set_Left_Face, 1, 1
Set_Left_Face, 2, 2
Set_Left_Face, 3, 3
** Name: BC-Right Type: Displacement/Rotation
*Boundary, amplitude=Amp_1cycle
Set_Right_face, 1, 1, 0.5
** 
** OUTPUT REQUESTS
** 
*Restart, write, frequency=0
** 
** FIELD OUTPUT: F-Output-1
** 
*Output, field, variable=PRESELECT
** 
** HISTORY OUTPUT: H-RF-Left
** 
*Output, history
*Node Output, nset=Set_Left_Nodes
RF1, RF2, RF3, RM1, RM2, RM3
** 
** HISTORY OUTPUT: H-U-right
** 
*Node Output, nset=Set_Right_Nodes
U1, U2, U3, UR1, UR2, UR3
** 
** HISTORY OUTPUT: H-Output-1
** 
*Output, history, variable=PRESELECT
*End Step

