 Abaqus/Standard 2024                  DATE 03-Mar-2026 TIME 06:13:50
 SUMMARY OF JOB INFORMATION:
 STEP  INC ATT SEVERE EQUIL TOTAL  TOTAL      STEP       INC OF       DOF    IF
               DISCON ITERS ITERS  TIME/    TIME/LPF    TIME/LPF    MONITOR RIKS
               ITERS               FREQ
   1     1   1     0     4     4  10.0       10.0       10.00     
                          
 THE ANALYSIS HAS COMPLETED SUCCESSFULLY
