1

   Abaqus 2024                                  Date 01-Mar-2026   Time 06:55:14
   For use by Supplied by Team-SolidSQUAD under license from Dassault Systemes or its subsidiary.



                         The Abaqus Software is a product of:

                           Dassault Systemes SIMULIA Corp.
                           1301 Atwood Avenue, Suite 101W
                              Johnston, RI 02919, USA
 


                   The Abaqus Software is available only under license
                   from Dassault Systemes or its subsidiary and may be
                   used or reproduced only in accordance with the terms
                   of such license.
 
                          On machine PRUTHVI 
                          you are authorized to run
                          Abaqus/Standard until 31-Dec-2055

                          Your site id is:  


 
                    For assistance or any other information you may
                    obtain contact information for your local office
                    from the world wide web at:

                      https://www.3ds.com/products-services/simulia/services-support/

 
                * * * * * * * * * * * * * * * * * * * * * * * * * * * * * * 
                *                                                         * 
                *                   *****************                     * 
                *                   *  N O T I C E  *                     * 
                *                   *****************                     * 
                *                                                         * 
                *                                                         * 
                *                       Abaqus 2024                       * 
                *                                                         * 
                *       BUILD ID: 2023_09_21-14.55.25 RELr426 190762      * 
                *                                                         * 
                *                                                         * 
                *  Please make sure you are using                         * 
                *  release Abaqus 2024 manuals                            * 
                *  plus the notes accompanying this release.              * 
                *                                                         * 
                *                                                         * 
                *                                                         * 
                *                                                         * 
                * * * * * * * * * * * * * * * * * * * * * * * * * * * * * * 


 



     PROCESSING PART, INSTANCE, AND ASSEMBLY INFORMATION
   *******************************************************


     END PROCESSING PART, INSTANCE, AND ASSEMBLY INFORMATION
   ***********************************************************




     OPTIONS BEING PROCESSED
   ***************************


  *Heading
          vp_10cycles                                                                                                                                                                                                                                                                                                                                                                                                                                                                                                                     
  *Element, type=C3D8R
  *Elset, elset=ASSEMBLY_PART-1-1_SET-1
  *Elset, elset=ASSEMBLY_SET-1
  *Elset, elset=ASSEMBLY_SET-2
  *material, name=MATERIAL-1
  *elastic
  *material, name=MATERIAL-VP
  *elastic
  *plastic, rate=0.001

 ***ERROR: THE STATIC YIELD STRESS MUST BE DEFINED FIRST
 ***NOTE: DUE TO AN INPUT ERROR THE ANALYSIS PRE-PROCESSOR HAS BEEN UNABLE TO 
          INTERPRET SOME DATA.  SUBSEQUENT ERRORS MAY BE CAUSED BY THIS OMISSION
  *viscosity

 ***ERROR: THE *VISCOSITY OPTION IS NOT AVAILABLE FOR Abaqus/Standard

 ***ERROR: THE VISCOSITY MUST BE GREATER THAN ZERO

 ***ERROR: THE *VISCOSITY OPTION MUST BE USED IN COMBINATION WITH THE *EOS 
           OPTION
  *solidsection, elset=ASSEMBLY_PART-1-1_SET-1, material=MATERIAL-1
  *solidsection, elset=ASSEMBLY_PART-1-1_SET-1, material=MATERIAL-1
  *boundary
  *boundary, amplitude=AMP-1
  *boundary
  *boundary, amplitude=AMP-1
  *output, field, variable=PRESELECT
  *output, history, variable=PRESELECT
  *output, field, variable=PRESELECT
  *output, history, variable=PRESELECT
  *output, field, variable=PRESELECT
  *output, history, variable=PRESELECT
  *Step, name=Step-1, nlgeom=NO
  *output, field, variable=PRESELECT
  *output, history, variable=PRESELECT
  *Step, name=Step-1, nlgeom=NO
  *Step, name=Step-1, nlgeom=NO
  Static, General                                                                 
  *static
  *boundary
  *boundary, amplitude=AMP-1
  *output, field, variable=PRESELECT
  *output, history, variable=PRESELECT
  *endstep
  *Step, name=Step-1, nlgeom=NO
  *static
  *boundary
  *boundary, amplitude=AMP-1
  *endstep



                            P R O B L E M   S I Z E


          NUMBER OF ELEMENTS IS                                   320
          NUMBER OF NODES IS                                      525
          NUMBER OF NODES DEFINED BY THE USER                     525
          TOTAL NUMBER OF VARIABLES IN THE MODEL                 1575
          (DEGREES OF FREEDOM PLUS MAX NO. OF ANY LAGRANGE MULTIPLIER
           VARIABLES. INCLUDE *PRINT,SOLVE=YES TO GET THE ACTUAL NUMBER.)





          THE PROGRAM HAS DISCOVERED     4 FATAL ERRORS

               ** EXECUTION IS TERMINATED **



                              END OF USER INPUT PROCESSING



     JOB TIME SUMMARY
       USER TIME (SEC)      =     0.20    
       SYSTEM TIME (SEC)    =     0.10    
       TOTAL CPU TIME (SEC) =     0.30    
       WALLCLOCK TIME (SEC) =            0
