 Abaqus/Standard 2024                  DATE 01-Mar-2026 TIME 07:16:13
 SUMMARY OF JOB INFORMATION:
 STEP  INC ATT SEVERE EQUIL TOTAL  TOTAL      STEP       INC OF       DOF    IF
               DISCON ITERS ITERS  TIME/    TIME/LPF    TIME/LPF    MONITOR RIKS
               ITERS               FREQ
   1     1   1     0     1     1  10.0       10.0       10.00     
                          
 THE ANALYSIS HAS COMPLETED SUCCESSFULLY
